<?xml version="1.0" encoding="UTF-8"?>


<routes>
   <vType id="car"
   			vClass="passenger" length="5" accel="3.5" decel="2.2"
   			sigma="1.0" maxSpeed="10"/>

   <vType id="ev"
      		vClass="passenger" length="7" accel="3.5" decel="2.2" sigma="1.0"
      		maxSpeed="10" guiShape="emergency"/>

    <route id="route_0" edges="e1 e2 e3 e4 e5 e6" />
    <!--<flow id="carflow" type="car" beg="0" end="0" number="5" from="e1" to="e8"/>-->
    <!--<flow id="evflow" type="ev" beg="0" end="0" number="1" from="e1" to="e8"/>-->

    <vehicle id="0" type="car" route="route_0" depart="0"/>
    <vehicle id="1" type="car" route="route_0" depart="3"/>
    
    <vehicle id="test" type="ev" route="route_0" depart="6"/>

    <vehicle id="2" type="car" route="route_0" depart="9"/>
    <vehicle id="3" type="car" route="route_0" depart="12"/>

    

</routes>